@<TRIPOS>MOLECULE
ZINC000003913937
62    65    1     0     0
SMALL
USER_CHARGES
@<TRIPOS>ATOM
1      C1      0.6181   -0.3311   -0.5094 C.3      1 ZINC000003913937   -0.1700
2      C2     -0.3375    0.8616   -0.4376 C.3      1 ZINC000003913937    0.1100
3      N3     -1.7109    0.3780   -0.2757 N.am     1 ZINC000003913937   -0.6000
4      C4     -2.5297    0.0977   -1.4555 C.3      1 ZINC000003913937    0.1000
5      C5     -3.4013   -1.1330   -1.2222 C.3      1 ZINC000003913937    0.0700
6      N6     -4.1464   -1.0044    0.0305 N.am     1 ZINC000003913937   -0.5700
7      C7     -5.4116   -1.4618    0.1101 C.2      1 ZINC000003913937    0.7000
8      O8     -6.0012   -1.4367    1.1727 O.2      1 ZINC000003913937   -0.5100
9      N9     -6.0231   -1.9471   -0.9885 N.am     1 ZINC000003913937   -0.7100
10     C10    -7.4333   -2.3396   -0.9288 C.3      1 ZINC000003913937    0.1900
11     H11    -7.9685   -1.6706   -0.2550 H        1 ZINC000003913937    0.1300
12     C12    -8.0375   -2.2535   -2.3067 C.2      1 ZINC000003913937    0.5300
13     O13    -7.3572   -1.8991   -3.2461 O.2      1 ZINC000003913937   -0.5300
14     N14    -9.3339   -2.5703   -2.4951 N.am     1 ZINC000003913937   -0.6900
15     C15    -9.9212   -2.4865   -3.8346 C.3      1 ZINC000003913937    0.0900
16     H16    -9.1833   -2.5944   -4.6296 H        1 ZINC000003913937    0.1400
17     C17   -10.8493   -1.3041   -4.0206 C.2      1 ZINC000003913937    0.4900
18     O18   -10.6810   -0.1072   -4.1205 O.2      1 ZINC000003913937   -0.4300
19     N19   -11.9512   -2.1138   -4.0317 N.am     1 ZINC000003913937   -0.4900
20     C20   -11.1606   -3.3665   -4.0203 C.3      1 ZINC000003913937    0.1000
21     H21   -11.1867   -3.9589   -4.9350 H        1 ZINC000003913937    0.1500
22     S22   -11.7041   -4.2589   -2.5163 S.3      1 ZINC000003913937   -0.2800
23     C23   -13.3133   -3.3711   -2.3865 C.3      1 ZINC000003913937    0.0200
24     C24   -14.3752   -4.0106   -3.2834 C.3      1 ZINC000003913937   -0.1200
25     C25   -13.7905   -3.2939   -0.9349 C.3      1 ZINC000003913937   -0.1200
26     C26   -12.8830   -1.9653   -2.9097 C.3      1 ZINC000003913937    0.0200
27     H27   -12.4116   -1.4084   -2.1000 H        1 ZINC000003913937    0.0700
28     C28   -14.1012   -1.2166   -3.3854 C.2      1 ZINC000003913937    0.5100
29     O29   -14.7259   -0.5131   -2.6099 O.co2    1 ZINC000003913937   -0.6800
30     O30   -14.4622   -1.3143   -4.5459 O.co2    1 ZINC000003913937   -0.6600
31     C31    -7.5398   -3.7545   -0.4212 C.ar     1 ZINC000003913937   -0.1000
32     C32    -6.6294   -4.7082   -0.8366 C.ar     1 ZINC000003913937   -0.1000
33     C33    -6.7271   -6.0061   -0.3709 C.ar     1 ZINC000003913937   -0.1200
34     C34    -7.7349   -6.3502    0.5105 C.ar     1 ZINC000003913937   -0.1100
35     C35    -8.6447   -5.3963    0.9266 C.ar     1 ZINC000003913937   -0.1100
36     C36    -8.5445   -4.0974    0.4642 C.ar     1 ZINC000003913937   -0.0900
37     C37    -3.5702   -0.4299    1.1054 C.2      1 ZINC000003913937    0.5200
38     O38    -4.1409   -0.4172    2.1757 O.2      1 ZINC000003913937   -0.4100
39     C39    -2.2152    0.1870    0.9598 C.2      1 ZINC000003913937    0.5200
40     O40    -1.5817    0.5187    1.9402 O.2      1 ZINC000003913937   -0.4800
41     H41     1.6399    0.0287   -0.6298 H        1 ZINC000003913937    0.0700
42     H42     0.5435   -0.9123    0.4097 H        1 ZINC000003913937    0.0600
43     H43     0.3516   -0.9595   -1.3592 H        1 ZINC000003913937    0.0600
44     H44    -0.0711    1.4900    0.4123 H        1 ZINC000003913937    0.0900
45     H45    -0.2629    1.4428   -1.3567 H        1 ZINC000003913937    0.0900
46     H46    -3.1681    0.9565   -1.6625 H        1 ZINC000003913937    0.0900
47     H47    -1.8783   -0.0800   -2.3113 H        1 ZINC000003913937    0.1200
48     H48    -4.1037   -1.2382   -2.0491 H        1 ZINC000003913937    0.1100
49     H49    -2.7677   -2.0186   -1.1745 H        1 ZINC000003913937    0.1000
50     H50    -5.5296   -2.0364   -1.8188 H        1 ZINC000003913937    0.4100
51     H51    -9.8780   -2.8537   -1.7438 H        1 ZINC000003913937    0.4200
52     H52   -14.5452   -5.0400   -2.9680 H        1 ZINC000003913937    0.0600
53     H53   -15.3053   -3.4478   -3.2032 H        1 ZINC000003913937    0.0800
54     H54   -14.0318   -3.9995   -4.3178 H        1 ZINC000003913937    0.0700
55     H55   -13.0394   -2.7832   -0.3323 H        1 ZINC000003913937    0.0600
56     H56   -14.7292   -2.7418   -0.8899 H        1 ZINC000003913937    0.0900
57     H57   -13.9427   -4.3016   -0.5483 H        1 ZINC000003913937    0.0700
58     H58    -5.8420   -4.4394   -1.5252 H        1 ZINC000003913937    0.1200
59     H59    -6.0162   -6.7514   -0.6960 H        1 ZINC000003913937    0.1200
60     H60    -7.8116   -7.3644    0.8737 H        1 ZINC000003913937    0.1200
61     H61    -9.4323   -5.6652    1.6149 H        1 ZINC000003913937    0.1300
62     H62    -9.2553   -3.3521    0.7893 H        1 ZINC000003913937    0.1300
@<TRIPOS>BOND
1     1     2     1
2     1     41    1
3     1     42    1
4     1     43    1
5     2     3     1
6     2     44    1
7     2     45    1
8     3     39    am
9     3     4     1
10    4     5     1
11    4     46    1
12    4     47    1
13    5     6     1
14    5     48    1
15    5     49    1
16    6     7     am
17    6     37    am
18    7     8     2
19    7     9     am
20    9     10    1
21    9     50    1
22    10    11    1
23    10    12    1
24    10    31    1
25    12    13    2
26    12    14    am
27    14    15    1
28    14    51    1
29    15    16    1
30    15    20    1
31    15    17    1
32    17    18    2
33    17    19    am
34    19    26    1
35    19    20    1
36    20    21    1
37    20    22    1
38    22    23    1
39    23    24    1
40    23    25    1
41    23    26    1
42    24    52    1
43    24    53    1
44    24    54    1
45    25    55    1
46    25    56    1
47    25    57    1
48    26    27    1
49    26    28    1
50    28    29    ar
51    28    30    ar
52    31    36    ar
53    31    32    ar
54    32    33    ar
55    32    58    1
56    33    34    ar
57    33    59    1
58    34    35    ar
59    34    60    1
60    35    36    ar
61    35    61    1
62    36    62    1
63    37    38    2
64    37    39    1
65    39    40    2
@<TRIPOS>SUBSTRUCTURE
1   ZINC000003913937 1     RESIDUE    1   A     ZIN   1
