# created with PyMOL 2.3.0
@<TRIPOS>MOLECULE
carb_with_H_aligned
42 44 1 0 0
SMALL
USER_CHARGES


@<TRIPOS>ATOM
      1 C1          1.7490    0.6350 -104.1820 C.3       1 UNK    0.0000
      2 N1          3.6550    3.9710 -103.0470 N.3       1 UNK    0.0000
      3 O1          4.6510    4.2650 -101.0440 O.3       1 UNK    0.0000
      4 S1          3.9430    0.7930 -102.5570 S.3       1 UNK    0.0000
      5 C2          3.1520    0.0180 -104.0210 C.3       1 UNK    0.0000
      6 N2          4.6530    1.6530 -104.8320 N.3       1 UNK    0.0000
      7 O2          2.3230    5.0780  -98.8180 O.3       1 UNK    0.0000
      8 C3          2.9940   -1.5000 -103.7920 C.3       1 UNK    0.0000
      9 O3          2.7150    6.8320 -100.1150 O.3       1 UNK    0.0000
     10 C4          5.0500    1.9350 -103.4640 C.3       1 UNK    0.0000
     11 O4          3.9860    3.4720 -106.1790 O.3       1 UNK    0.0000
     12 C5          4.8040    3.4250 -103.7590 C.3       1 UNK    0.0000
     13 O5          6.1070   -0.7650 -104.8400 O.3       1 UNK    0.0000
     14 C6          3.6440    4.3270 -101.7550 C.3       1 UNK    0.0000
     15 O6          5.0150   -1.1940 -106.7240 O.3       1 UNK    0.0000
     16 C7          2.2650    4.7690 -101.2160 C.3       1 UNK    0.0000
     17 C8          2.4550    5.6210  -99.9390 C.3       1 UNK    0.0000
     18 C9          1.3410    3.5680 -100.9790 C.3       1 UNK    0.0000
     19 C10         0.0500    3.5650 -101.5510 C.3       1 UNK    0.0000
     20 C11        -0.8060    2.4610 -101.3800 C.3       1 UNK    0.0000
     21 C12        -0.3800    1.3460 -100.6340 C.3       1 UNK    0.0000
     22 C13         0.9040    1.3380 -100.0570 C.3       1 UNK    0.0000
     23 C14         1.7600    2.4430 -100.2280 C.3       1 UNK    0.0000
     24 C15         4.4350    2.9640 -105.1740 C.3       1 UNK    0.0000
     25 C16         4.0480    0.4060 -105.2490 C.3       1 UNK    0.0000
     26 C17         5.1520   -0.5990 -105.6340 C.3       1 UNK    0.0000
     27 H1          1.2330    0.2230 -105.0490 H         1 UNK    0.0000
     28 H2          1.1290    0.4430 -103.3050 H         1 UNK    0.0000
     29 H3          1.7980    1.7160 -104.3100 H         1 UNK    0.0000
     30 H4          2.5950   -1.9940 -104.6790 H         1 UNK    0.0000
     31 H5          3.9420   -1.9770 -103.5410 H         1 UNK    0.0000
     32 H6          2.3120   -1.7030 -102.9670 H         1 UNK    0.0000
     33 H7          6.0980    1.7020 -103.2720 H         1 UNK    0.0000
     34 H8          5.7080    4.0310 -103.6900 H         1 UNK    0.0000
     35 H9          2.7900    4.0350 -103.5630 H         1 UNK    0.0000
     36 H10         1.8090    5.4160 -101.9680 H         1 UNK    0.0000
     37 H11        -0.2890    4.4120 -102.1300 H         1 UNK    0.0000
     38 H12        -1.7910    2.4680 -101.8230 H         1 UNK    0.0000
     39 H13        -1.0350    0.4980 -100.5040 H         1 UNK    0.0000
     40 H14         1.2340    0.4840  -99.4850 H         1 UNK    0.0000
     41 H15         2.7430    2.4230  -99.7810 H         1 UNK    0.0000
     42 H16         3.4300    0.5780 -106.1320 H         1 UNK    0.0000
@<TRIPOS>BOND
     1    1    5 1
     2    1   27 1
     3    1   28 1
     4    1   29 1
     5    2   14 1
     6    2   35 1
     7    4   10 1
     8    4    5 1
     9    5    8 1
    10    5   25 1
    11    6   25 1
    12    8   30 1
    13    8   31 1
    14    8   32 1
    15    6   10 1
    16   10   12 1
    17   10   33 1
    18    2   12 1
    19   12   24 1
    20   12   34 1
    21    3   14 1
    22   14   16 1
    23   16   17 1
    24   16   18 1
    25   16   36 1
    26    7   17 1
    27    9   17 1
    28   18   19 1
    29   18   23 1
    30   19   20 1
    31   19   37 1
    32   20   21 1
    33   20   38 1
    34   21   22 1
    35   21   39 1
    36   22   23 1
    37   22   40 1
    38   23   41 1
    39    6   24 1
    40   11   24 1
    41   25   26 1
    42   25   42 1
    43   13   26 1
    44   15   26 1
@<TRIPOS>SUBSTRUCTURE
     1 UNK     1 RESIDUE           4 X     UNK     0 ROOT
