@<TRIPOS>MOLECULE
generated by VMD
   46   49    1    0    0
SMALL
NO_CHARGES
****
Energy = 0

@<TRIPOS>ATOM
      1  S          3.2495    3.0242  -103.8939  S.3    1  UNK0        0.000000
      2  O          7.6262    3.7059  -103.3255  O.2    1  UNK0        0.000000
      3  O          4.7996    0.4092  -105.6912 O.co2    1  UNK0        0.000000
      4  O          6.1477    1.2701  -107.2307 O.co2    1  UNK0        0.000000
      5  O          3.7183    3.1802  -99.9028  O.2    1  UNK0        0.000000
      6  O          3.6012    7.7382  -99.8113  O.3    1  UNK0        0.000000
      7  N          5.7214    2.5158  -104.0591 N.pl3    1  UNK0        0.000000
      8  N          5.0591    4.1086  -101.4711 N.pl3    1  UNK0        0.000000
      9  N          2.3279    7.2344  -99.5064  N.2    1  UNK0        0.000000
     10  C          4.6871    2.2385  -103.0793  C.3    1  UNK0        0.000000
     11  C          4.0866    3.4812  -105.4643  C.3    1  UNK0        0.000000
     12  C          5.4533    2.7099  -105.4669  C.3    1  UNK0        0.000000
     13  C          5.6008    2.8715  -102.0170  C.3    1  UNK0        0.000000
     14  C          6.5772    3.1189  -103.1706  C.2    1  UNK0        0.000000
     15  C          3.1665    3.1674  -106.6630  C.3    1  UNK0        0.000000
     16  C          4.3508    4.9997  -105.4376  C.3    1  UNK0        0.000000
     17  C          5.4662    1.3463  -106.1846  C.2    1  UNK0        0.000000
     18  C          4.1660    4.1729  -100.4738  C.2    1  UNK0        0.000000
     19  C          3.6811    5.5526  -100.1411  C.2    1  UNK0        0.000000
     20  C          2.3821    5.9215  -99.6892  C.2    1  UNK0        0.000000
     21  C          4.4067    6.7107  -100.1854  C.2    1  UNK0        0.000000
     22  C          1.1861    5.1170  -99.4368  C.2    1  UNK0        0.000000
     23  C          5.8159    7.0566  -100.5392  C.3    1  UNK0        0.000000
     24  C          1.1835    4.1337  -98.4247  C.2    1  UNK0        0.000000
     25  C          0.0182    5.3285  -100.1991  C.2    1  UNK0        0.000000
     26  C          0.0294    3.3634  -98.1837  C.2    1  UNK0        0.000000
     27  C         -1.1374    4.5592  -99.9593  C.2    1  UNK0        0.000000
     28  C         -1.1320    3.5759  -98.9517  C.2    1  UNK0        0.000000
     29  H          4.5222    1.1701  -102.9258    H    1  UNK0        0.000000
     30  H          6.2394    3.3279  -105.9062    H    1  UNK0        0.000000
     31  H          5.9449    2.1565  -101.2672    H    1  UNK0        0.000000
     32  H          3.6705    3.3610  -107.6107    H    1  UNK0        0.000000
     33  H          2.8376    2.1278  -106.6651    H    1  UNK0        0.000000
     34  H          2.2661    3.7825  -106.6379    H    1  UNK0        0.000000
     35  H          4.8616    5.3276  -106.3434    H    1  UNK0        0.000000
     36  H          3.4205    5.5633  -105.3619    H    1  UNK0        0.000000
     37  H          4.9720    5.2847  -104.5883    H    1  UNK0        0.000000
     38  H          5.3538    4.9687  -101.9093    H    1  UNK0        0.000000
     39  H          6.5144    6.3536  -100.0853    H    1  UNK0        0.000000
     40  H          5.9600    7.0289  -101.6200    H    1  UNK0        0.000000
     41  H          6.0739    8.0570  -100.1911    H    1  UNK0        0.000000
     42  H          2.0705    3.9667  -97.8300    H    1  UNK0        0.000000
     43  H          0.0066    6.0811  -100.9737    H    1  UNK0        0.000000
     44  H          0.0346    2.6101  -97.4099    H    1  UNK0        0.000000
     45  H         -2.0280    4.7234  -100.5487    H    1  UNK0        0.000000
     46  H         -2.0176    2.9851  -98.7675    H    1  UNK0        0.000000
@<TRIPOS>BOND
    1     1    10  1
    2     1    11  1
    3     2    14  2
    4     3    17  1
    5     4    17  2
    6     5    18  2
    7     6     9  1
    8     6    21  1
    9     7    10  1
   10     7    12  1
   11     7    14  1
   12     8    13  1
   13     8    18  1
   14     8    38  1
   15     9    20  2
   16    10    13  1
   17    10    29  1
   18    11    12  1
   19    11    15  1
   20    11    16  1
   21    12    17  1
   22    12    30  1
   23    13    14  1
   24    13    31  1
   25    15    32  1
   26    15    33  1
   27    15    34  1
   28    16    35  1
   29    16    36  1
   30    16    37  1
   31    18    19  1
   32    19    20  1
   33    19    21  2
   34    20    22  1
   35    21    23  1
   36    22    24  2
   37    22    25  1
   38    23    39  1
   39    23    40  1
   40    23    41  1
   41    24    26  1
   42    24    42  1
   43    25    27  2
   44    25    43  1
   45    26    28  2
   46    26    44  1
   47    27    28  1
   48    27    45  1
   49    28    46  1

@<TRIPOS>SUBSTRUCTURE
1 ****        1 TEMP                        0 ****  **** 0 ROOT
